1SAC_clean_Pazopanib_0
 OpenBabel08082522013D

 37 40  0  0  0  0  0  0  0  0999 V2000
   24.4750   46.4800   18.2730 N   0  0  0  0  0
   23.8850   46.9560   16.0530 N   0  0  0  0  0
   22.9030   46.7990   16.2810 H   0  0  0  0  0
   26.1870   47.0230   16.7640 N   0  0  0  0  0
   26.8760   46.9140   17.5080 H   0  0  0  0  0
   24.2970   47.3000   14.8150 C   0  0  0  0  0
   24.8680   46.8370   16.9660 C   0  0  0  0  0
   25.6170   47.5180   14.4780 C   0  0  0  0  0
   26.5280   47.3640   15.5040 C   0  0  0  0  0
   25.2380   46.5570   18.9380 H   0  0  0  0  0
   23.2630   46.1260   18.8070 C   0  0  0  0  0
   22.8430   44.7760   18.8510 C   0  0  0  0  0
   21.6100   44.4150   19.3940 C   0  0  0  0  0
   20.7620   45.3950   19.9100 C   0  0  0  0  0
   21.1470   46.7360   19.8810 C   0  0  0  0  0
   19.4350   45.0440   20.4990 C   0  0  0  0  0
   22.3800   47.0960   19.3380 C   0  0  0  0  0
   21.1580   42.7250   19.4130 S   0  0  0  0  0
   21.1190   42.2810   20.7990 O   0  0  0  0  0
   19.9910   42.5510   18.5620 O   0  0  0  0  0
   22.5110   42.0220   18.6450 N   0  0  0  0  0
   22.4720   41.0160   18.4360 H   0  0  0  0  0
   22.9950   42.5770   17.9280 H   0  0  0  0  0
   23.3300   47.4480   13.7900 N   0  0  0  0  0
   22.3840   48.5650   13.8960 C   0  0  0  0  0
   23.0160   46.4910   12.7880 C   0  0  0  0  0
   23.1560   45.1220   13.1050 C   0  0  0  0  0
   22.8180   44.2620   12.0450 C   0  0  0  0  0
   22.8270   42.9190   11.9760 N   0  0  0  0  0
   22.3780   44.7960   10.7780 C   0  0  0  0  0
   22.4110   42.6380   10.7260 N   0  0  0  0  0
   23.0900   42.2590   12.7080 H   0  0  0  0  0
   22.1270   43.7310    9.9600 C   0  0  0  0  0
   22.3060   41.2550   10.3210 C   0  0  0  0  0
   21.6570   43.6310    8.5650 C   0  0  0  0  0
   22.2300   46.1340   10.4350 C   0  0  0  0  0
   22.5740   46.9710   11.5150 C   0  0  0  0  0
  7  1  1  0  0  0
  1 11  1  0  0  0
  1 10  1  0  0  0
  6  2  1  0  0  0
  2  3  1  0  0  0
  2  7  2  0  0  0
  9  4  2  0  0  0
  4  7  1  0  0  0
  4  5  1  0  0  0
 24  6  1  0  0  0
  8  6  2  0  0  0
  8  9  1  0  0  0
 11 12  2  0  0  0
 11 17  1  0  0  0
 12 13  1  0  0  0
 13 18  1  0  0  0
 13 14  2  0  0  0
 15 14  1  0  0  0
 14 16  1  0  0  0
 17 15  2  0  0  0
 20 18  2  0  0  0
 21 18  1  0  0  0
 18 19  2  0  0  0
 23 21  1  0  0  0
 22 21  1  0  0  0
 26 24  1  0  0  0
 24 25  1  0  0  0
 37 26  2  0  0  0
 26 27  1  0  0  0
 28 27  2  0  0  0
 30 28  1  0  0  0
 29 28  1  0  0  0
 31 29  1  0  0  0
 29 32  1  0  0  0
 33 30  1  0  0  0
 36 30  2  0  0  0
 33 31  2  0  0  0
 34 31  1  0  0  0
 35 33  1  0  0  0
 36 37  1  0  0  0
M  RAD 12   8   2   9   2  12   2  15   2  16   4  17   2  25   4  27   2  34   4  35   4  36   2  37   2
M  END
>  <Vina Binding Affinity>
-6.8

$$$$
